https://api.github.com/repos/mnakamura1337/mikan_engine
https://api.github.com/repos/codemonkeybulucck/opencore-vo-amrwbenc-iOS
https://api.github.com/repos/DummkopfOfHachtenduden/ModuleFilter
https://api.github.com/repos/iseekwonderful/DrCOM-Scut
https://api.github.com/repos/Ruscris2/RC-Engine
https://api.github.com/repos/totaljs/emptyproject-restservice
https://api.github.com/repos/kkemple/greenkeeper-keeper
https://api.github.com/repos/old-NWTC/TurbSim
https://api.github.com/repos/AlexanderCaesar/H264ToFLV
https://api.github.com/repos/ethereumjs/eth-bin-to-ops
https://api.github.com/repos/dark-industries/dark-zine
https://api.github.com/repos/baophong09/Youtube-Clone
https://api.github.com/repos/fajri91/Search-Engine-TFIDF-with-Query-Expansion
https://api.github.com/repos/adrianke/radio
https://api.github.com/repos/AYLIEN/jupyter-notebooks
https://api.github.com/repos/nytimes/prosemirror-change-tracking-prototype
https://api.github.com/repos/lcui-dev/LCUi-Guide
https://api.github.com/repos/SpikeKing/BinderPoolDemo
https://api.github.com/repos/bentatum/minify-css-string
https://api.github.com/repos/hpssjellis/google-magenta-midi-music-on-linux-hello-world
https://api.github.com/repos/TedYav/HadCRUT3-Visualization
https://api.github.com/repos/qt/qtotaupdate
https://api.github.com/repos/jstruzik/boston-food-truck-slack-bot
https://api.github.com/repos/rahulg/mpv-twitch-chat
https://api.github.com/repos/Froelund/react-native-text-highlight
https://api.github.com/repos/krishnads/KScrollableTopMenuDemo
https://api.github.com/repos/LorenzGit/UnityConsole
https://api.github.com/repos/GuiltyDolphin/emaps
https://api.github.com/repos/stone0117/EasywayBuild
https://api.github.com/repos/VirtualPlants/timagetk
https://api.github.com/repos/steveren/ruby-driver-sample-app
https://api.github.com/repos/mrphu3074/react-native-realm-model
https://api.github.com/repos/XWHQSJ/DrawTool
https://api.github.com/repos/MattDiMu/postcss-class-patterns
https://api.github.com/repos/18510290290/Test
https://api.github.com/repos/ops-itop/cmdbApi
https://api.github.com/repos/Hilzu/gc-latency-experiment
https://api.github.com/repos/TeamErlich/personal-identification-pipeline
https://api.github.com/repos/june29/ruboty-irasutoya
https://api.github.com/repos/huijimuhe/common-layout-android
https://api.github.com/repos/slact/hdr_histogram_ruby
https://api.github.com/repos/kemitchell/ibf.js
https://api.github.com/repos/openstack-archive/cursive
https://api.github.com/repos/MCPE-Addons/MCPE-Headers
https://api.github.com/repos/waterlink/query.cr
https://api.github.com/repos/Abdizriel/generator-nodejs-microservice-starter
https://api.github.com/repos/dirmeier/netReg
https://api.github.com/repos/Aoinu/ng2-twitter
https://api.github.com/repos/volumio/docs
https://api.github.com/repos/marcelobjr/prettus
https://api.github.com/repos/xyxiao001/wheel
https://api.github.com/repos/mmelchger/polling_state_machine_c
https://api.github.com/repos/lostella/SimpleMakefile
https://api.github.com/repos/objectpartners/angular2-timesheet
https://api.github.com/repos/JOSM/geojson
https://api.github.com/repos/cjbrigato/RFIdea
https://api.github.com/repos/lihuang916/PChord
https://api.github.com/repos/evshiron/node-resourcehacker
https://api.github.com/repos/qld-gov-au/qg-web-template
https://api.github.com/repos/mrlesmithjr/python-powerdns-management
https://api.github.com/repos/cbeck88/lua-primer
https://api.github.com/repos/b-adkins/UE4-TankVehiclePlugin
https://api.github.com/repos/ckptrifork/android-mutation-testing
https://api.github.com/repos/qiqixuexue/doubleTimeChoose
https://api.github.com/repos/tektite-software/authoreyes
https://api.github.com/repos/abhishekkhaware/mvc
https://api.github.com/repos/hughrawlinson/chuck_demos
https://api.github.com/repos/maxfarseer/react-redux-file-upload-example
https://api.github.com/repos/resir014/screeps
https://api.github.com/repos/vue-bulma/jump
https://api.github.com/repos/elastic/hkoscon16
https://api.github.com/repos/ruruwei/Calculator
https://api.github.com/repos/tmanderson/babelconf
https://api.github.com/repos/wilderlopes/OpenGA
https://api.github.com/repos/hughrawlinson/chuck_demos
https://api.github.com/repos/elastic/hkoscon16
https://api.github.com/repos/cbeck88/lua-primer
https://api.github.com/repos/edwardmeng/PowerMapper
https://api.github.com/repos/resir014/screeps
https://api.github.com/repos/ruruwei/Calculator
https://api.github.com/repos/zstyblik/go-facter
https://api.github.com/repos/wjgaas/fuzzycd
https://api.github.com/repos/compasses/MockXServer
https://api.github.com/repos/so0k/ecs-sample
https://api.github.com/repos/zonination/weather-us
https://api.github.com/repos/52admln/ram-password
https://api.github.com/repos/adityaladwa/TwiTone-Android
https://api.github.com/repos/royhessels/I2MC
https://api.github.com/repos/Erkaman/erkaman.github.io
https://api.github.com/repos/sorokine/phases
https://api.github.com/repos/GoogleCloudPlatform/shell-samples
https://api.github.com/repos/osu-crypto/batchDualEx
https://api.github.com/repos/FMXExpress/ios-object-pascal-wrapper
https://api.github.com/repos/joonhocho/country-calling-code
https://api.github.com/repos/ELD/aluminum-rs
https://api.github.com/repos/Mehdi-HS/Black-Support-Bot
https://api.github.com/repos/joonhocho/country-calling-code
https://api.github.com/repos/dbrgn/gerber-types-rs
https://api.github.com/repos/l2fprod/mycatalog
https://api.github.com/repos/zonination/pokemon-chart
