https://api.github.com/repos/Kayakflo/wow-dialogkey-sl
https://api.github.com/repos/yxinwang/BATCH-TKDE2020
https://api.github.com/repos/liesislukas/apple-scroll-direction-auto-toggle
https://api.github.com/repos/Fendy-MY/Crack-Fb
https://api.github.com/repos/siadat/intertype
https://api.github.com/repos/nihalpandey4/Online_Streaming_service
https://api.github.com/repos/akaskela/PowerAutomateAssistant
https://api.github.com/repos/evotools/CattleGraphGenomePaper
https://api.github.com/repos/selfhostedshow/homeassistant-rs
https://api.github.com/repos/garasingulik/eufy-security-proxy
https://api.github.com/repos/latonaio/face-recognition-from-images-kube
https://api.github.com/repos/latonaio/Real-Time-Video-Streaming
https://api.github.com/repos/isafe/T00lsAutoSign
https://api.github.com/repos/zichaoli/APART
https://api.github.com/repos/deuteros76/co2-detector
https://api.github.com/repos/yefangyong/mcshop
https://api.github.com/repos/liyunze-coding/Trigger-me-elmo-flask-app
https://api.github.com/repos/dirk-thomas/rosworld2020_ros-contributions
https://api.github.com/repos/geoffrey-wu/scibowl-stats
https://api.github.com/repos/jpvt/Deep_Learning
https://api.github.com/repos/saraspagno/Sorting-Visualizer
https://api.github.com/repos/davidrakosi/mern-imessage-clone
https://api.github.com/repos/tonmoym2mx/-IoT-Fan-Light-controller
https://api.github.com/repos/jaycech3n/CwF
https://api.github.com/repos/holochain/bootstrap
https://api.github.com/repos/nginxinc/nginx-wrapper
https://api.github.com/repos/danielpza/eslint-lsp
https://api.github.com/repos/dariadobsai/navigation-bar-web
https://api.github.com/repos/victorgau/wetland_opendata
https://api.github.com/repos/Paquity/fxlibc
https://api.github.com/repos/oddsdk/stored-wasm-example
https://api.github.com/repos/oranzani/Ranzani_Bastos_etal_LRM_COVID19Brazil
https://api.github.com/repos/Irfanham/Autonomus-Navigation-Turtlebot3
https://api.github.com/repos/ArneLimburg/testflight
https://api.github.com/repos/stereobooster/the-history-of-frontend-development
https://api.github.com/repos/CollaboraOnline/alfresco-collabora-online
https://api.github.com/repos/xcyraxx/dotfiles
https://api.github.com/repos/harryhaller001/keggtools
https://api.github.com/repos/asamiz/mongodb-course-iti
https://api.github.com/repos/LaravelDaily/Laravel-FAQ-Vue-AdminPanel
https://api.github.com/repos/OpenFAST/KiteFAST
https://api.github.com/repos/TheDesignMedium/rn-movie-app
https://api.github.com/repos/Spillmoment/laravel-koperasi
https://api.github.com/repos/sajclarke/docusaurus2-netlifycms
https://api.github.com/repos/adeesha-savinda/huffman-encode-decode
https://api.github.com/repos/helloakn/SmartSales-ReactNative-V1
https://api.github.com/repos/vvk4/Vector-S
https://api.github.com/repos/adeesha-savinda/huffman-encode-decode
https://api.github.com/repos/vvk4/Vector-S
https://api.github.com/repos/sajclarke/docusaurus2-netlifycms
https://api.github.com/repos/tuvovan/Unet-with-EfficientnetB7-Backbone
https://api.github.com/repos/spacelatte/android-ssl-mitm
https://api.github.com/repos/prongbang/fiber-casbinrest
https://api.github.com/repos/sunshibiao/iec104
https://api.github.com/repos/LabeoTech/Umit
https://api.github.com/repos/dolthub/bounties
https://api.github.com/repos/collaborativebioinformatics/nibSV
https://api.github.com/repos/liulizhi1996/HPOFiller
https://api.github.com/repos/debashischatterjee1/Automatic_attendence_system_using_facial_recognition_python_openCV
https://api.github.com/repos/christo-pr/redux-jsconf
https://api.github.com/repos/liara987/Happy-NLW-3
https://api.github.com/repos/pezhore/hashiconf-demo
https://api.github.com/repos/project-poodle/poodle-appx
https://api.github.com/repos/julienroyd/coordination-marl
https://api.github.com/repos/latonaio/microservice-watch
https://api.github.com/repos/latonaio/get-plc-backup-jtekt-with-samba-kube
https://api.github.com/repos/programmeruser2/wasm-canvas
https://api.github.com/repos/sadamshr3be/TmX-FW
https://api.github.com/repos/ThirtyDegreesRay/thirtydegreesray
https://api.github.com/repos/RakeshRaj97/covid-19-face-mask-and-social-distancing-detection
https://api.github.com/repos/cypher3107/GF-Patterns
https://api.github.com/repos/ThirtyDegreesRay/thirtydegreesray
https://api.github.com/repos/omur8819/Project-012-City-Yelp-App-React-Native-04
https://api.github.com/repos/AbdullahSarhan/ICPRVessels
https://api.github.com/repos/CodeF53/PackXBR
https://api.github.com/repos/carpentries-incubator/python-text-analysis
https://api.github.com/repos/owang/videosnapping
https://api.github.com/repos/MartinGris/node-red-contrib-skoda-connect
https://api.github.com/repos/sagnikghoshcr7/Dodger
https://api.github.com/repos/Alex950808/proxypool
https://api.github.com/repos/bookhahn/arcoreDepthTo3D
https://api.github.com/repos/mohameddahroug/ovikl
https://api.github.com/repos/Jgocunha/universal-robots-kinematics
https://api.github.com/repos/Snykta/Shop-SSM
https://api.github.com/repos/apifox/apifox-extensions
https://api.github.com/repos/aPureBase/ExcelDSL
https://api.github.com/repos/mitre/demodocus
https://api.github.com/repos/JenWike/getpublished
https://api.github.com/repos/tokamak-network/zvm
https://api.github.com/repos/allie/bigburger
https://api.github.com/repos/emacsmirror/maxima
https://api.github.com/repos/hi-zhenyu/PVC
https://api.github.com/repos/stafiprotocol/chainbridge
https://api.github.com/repos/lukemorales/pokedex-react-query-workshop
https://api.github.com/repos/JeffResc/Sonoff-D1-Dimmer
https://api.github.com/repos/genialkartik/hacktoberfest-checker
https://api.github.com/repos/kefcom/BrixelCTF2020
https://api.github.com/repos/alisa-tsvetkova/devfest
https://api.github.com/repos/lukemorales/pokedex-react-query-workshop
https://api.github.com/repos/cmuratori/4coder_temp
