https://api.github.com/repos/rifleak74/MarketDataScience
https://api.github.com/repos/AgoraIO-Usecase/Video-Calling
https://api.github.com/repos/melotic/ThreateningYeti
https://api.github.com/repos/kurotori4423/KurotoriUdonKart
https://api.github.com/repos/bbachi/react-nodejs-example
https://api.github.com/repos/bcribas/benchmark-ordenacao
https://api.github.com/repos/THUIR/PreHash
https://api.github.com/repos/HugoLime/notion-backup
https://api.github.com/repos/egorozh/Egorozh.ColorPicker
https://api.github.com/repos/LucasLarson/gunstage
https://api.github.com/repos/astroDimitrios/Astronomy
https://api.github.com/repos/modulabs/beyondBERT
https://api.github.com/repos/earthstar-project/react-earthstar
https://api.github.com/repos/shitcorp/todobot
https://api.github.com/repos/PC6live/bilibili-joybook-tampermonkey
https://api.github.com/repos/anchore/stereoscope
https://api.github.com/repos/meekaah/SuperViou
https://api.github.com/repos/XRobots/miniDogV2
https://api.github.com/repos/phuhl/bspwm-rounded
https://api.github.com/repos/mc12027/OpenLAP-Lap-Time-Simulator
https://api.github.com/repos/doitintl/SafeScrub
https://api.github.com/repos/onsecru/jwt-hacking-challenges
https://api.github.com/repos/ethercrow/opentelemetry-haskell
https://api.github.com/repos/1d8/spybrowse
https://api.github.com/repos/NagliNagli/OneLiners
https://api.github.com/repos/roburio/unipi
https://api.github.com/repos/MaartenGr/ReinLife
https://api.github.com/repos/my5G/my5G-RANTester
https://api.github.com/repos/daidodo/format-imports-vscode
https://api.github.com/repos/MacacaGames/MacacaViewSystem
https://api.github.com/repos/narendrasss/visualizer
https://api.github.com/repos/doldecomp/ogws
https://api.github.com/repos/OpenFAST/python-toolbox
https://api.github.com/repos/rose-pine/alacritty
https://api.github.com/repos/PacktPublishing/Extending-and-Modifying-LAMMPS-Writing-Your-Own-Source-Code
https://api.github.com/repos/earthstar-project/react-earthstar
https://api.github.com/repos/anchore/stereoscope
https://api.github.com/repos/daidodo/format-imports-vscode
https://api.github.com/repos/MacacaGames/MacacaViewSystem
https://api.github.com/repos/gotoh/ssh-connect
https://api.github.com/repos/narendrasss/visualizer
https://api.github.com/repos/OpenFAST/python-toolbox
https://api.github.com/repos/sudharshan-ashok/pycovid
https://api.github.com/repos/nydevel/programmer
https://api.github.com/repos/capybaralet/REx_code_release
https://api.github.com/repos/muzam1l/tclone-api
https://api.github.com/repos/osdnk/reanimated-bottom-sheet-navigator
https://api.github.com/repos/agap/luch
https://api.github.com/repos/CigoZim/cigoadmin-vue3.0
https://api.github.com/repos/0xCoto/CygnusRFI
https://api.github.com/repos/borisdayma/lightning-kitti
https://api.github.com/repos/zty199/HP_Pavilion_15-cb073tx_Hackintosh
https://api.github.com/repos/py5coding/py5
https://api.github.com/repos/angeluriot/Maze_solver
https://api.github.com/repos/ttscoff/hook_goodies
https://api.github.com/repos/mfvanek/pg-index-health-sql
https://api.github.com/repos/pybind/scikit_build_example
https://api.github.com/repos/zty199/HP_Pavilion_15-cb073tx_Hackintosh
https://api.github.com/repos/borisdayma/lightning-kitti
https://api.github.com/repos/danhellem/github-actions-issue-to-work-item
https://api.github.com/repos/angeluriot/Maze_solver
https://api.github.com/repos/sebanc/brunch-unstable
https://api.github.com/repos/chaotictoejam/VANETTutorials
https://api.github.com/repos/scikit-learn-contrib/scikit-matter
https://api.github.com/repos/davibaltar/example-swagger-autogen
https://api.github.com/repos/pybind/scikit_build_example
https://api.github.com/repos/domino14/liwords
https://api.github.com/repos/Jrebort/Linux-System-BackupTool
https://api.github.com/repos/mfvanek/pg-index-health-sql
https://api.github.com/repos/SAP/machine-learning-lab
https://api.github.com/repos/Timaos123/BiLSTM-CRF
https://api.github.com/repos/sinic/ednc
https://api.github.com/repos/microsoft/vscode-markdown-notebook
https://api.github.com/repos/colin-mccarthy/k3s-pi-hole
https://api.github.com/repos/minhntm/aws-developer-associate-certificate
https://api.github.com/repos/ShunichiSan/HomeAssistantApplianceCard
https://api.github.com/repos/NSHipster/ContactTracing-Framework-Interface
https://api.github.com/repos/cslydia/BiFlaG
https://api.github.com/repos/dibyendumajumdar/ravi-compiler
https://api.github.com/repos/cedro3/others
https://api.github.com/repos/jchorl/sendfiles
https://api.github.com/repos/ianhi/jupyterlab-vimrc
https://api.github.com/repos/frappe/erpnext_documentation
https://api.github.com/repos/gil--/Shopify-Developer-Training-Plan
https://api.github.com/repos/nitaybz/homebridge-sensibo-ac
https://api.github.com/repos/Android-Alvin/Android-P7
https://api.github.com/repos/amir5121/arcView
https://api.github.com/repos/Alcampopiano/hypothesize
https://api.github.com/repos/TheBakaRem/TouhouRPC
https://api.github.com/repos/aprildunnam/ListFormatting
https://api.github.com/repos/ksb2043/instagram_influencer_dataset
https://api.github.com/repos/make-github-pseudonymous-again/awesome-qr-code
https://api.github.com/repos/scalacn/hands-on-scala-zh
https://api.github.com/repos/nnizhang/S2MA
https://api.github.com/repos/shawroad/Python-Library-Learning
https://api.github.com/repos/elkowar/Termibbl
https://api.github.com/repos/nathaneltitane/dextop
https://api.github.com/repos/jiawen-zhu/Awesome-Video-Instance-Segmentation
https://api.github.com/repos/TimWhiting/dartpy
https://api.github.com/repos/Kreeblah/XGecu_Software
