https://api.github.com/repos/vntw/Statika
https://api.github.com/repos/cl-axon/cl-paip
https://api.github.com/repos/agiledon/agiledon.github.com
https://api.github.com/repos/addisaden/fuzzy-logic
https://api.github.com/repos/juliocesar/hopla
https://api.github.com/repos/deapsquatter/MvvmCross.DeapExtensions
https://api.github.com/repos/ppalex7/SourceComms
https://api.github.com/repos/linupi/RaspPiTouchLCD
https://api.github.com/repos/szpak/code-examples-and-poc
https://api.github.com/repos/mnimer/UniversalMind-CQ-Components
https://api.github.com/repos/PatrickHeneise/cordova-ios-statusbar
https://api.github.com/repos/arunaugustine/ID3
https://api.github.com/repos/Blaisorblade/Agda-playground
https://api.github.com/repos/miohtama/tumblr-upload
https://api.github.com/repos/toddq/hdhomerun-vlc
https://api.github.com/repos/afroisalreadyinu/gimme-cat
https://api.github.com/repos/masterzora/tawny-cdk
https://api.github.com/repos/sigmaris/python-gssapi
https://api.github.com/repos/PseudoKnight/FinalScoreMC
https://api.github.com/repos/larsyencken/slowclap
https://api.github.com/repos/kadamwhite/mbtawesome
https://api.github.com/repos/bikesharebot/bikesharestats
https://api.github.com/repos/barnabywalters/php-mf-cleaner
https://api.github.com/repos/dfalster/BeamerTitleSlide
https://api.github.com/repos/Scout24/livestatus_service
https://api.github.com/repos/jgors/vimux-ipy
https://api.github.com/repos/dajoh/Antumbra
https://api.github.com/repos/shanti2530/formbot
https://api.github.com/repos/mapsherpa/grunt-screenshot-diff
https://api.github.com/repos/pierreinglebert/grunt-zopfli-native
https://api.github.com/repos/jserv/Taunix
https://api.github.com/repos/BlockMen/torches
https://api.github.com/repos/emist/D3DTextureLoggerClient
https://api.github.com/repos/xrmx/django-uwkhtmltopdf
https://api.github.com/repos/alect/Puzzledice
https://api.github.com/repos/dizballanze/debugmail
https://api.github.com/repos/lkilcher/pyTurbSim
https://api.github.com/repos/drakulavich/russian-sublime-cheatsheet
https://api.github.com/repos/lukagabric/LargeDatasetSample
https://api.github.com/repos/ThorstenHans/generator-bower
https://api.github.com/repos/bfh-evg/unicrypt
https://api.github.com/repos/ros-perception/pcl_conversions
https://api.github.com/repos/david78k/anarchyape
https://api.github.com/repos/Gewora/Laravel-4-Envato-API-Wrapper
https://api.github.com/repos/mthamil/EFDocumentationGenerator
https://api.github.com/repos/mistakster/jquery-daterange
https://api.github.com/repos/eldargab/translit
https://api.github.com/repos/nyteshade/Eventable
https://api.github.com/repos/alecthegeek/CCHS_Raspian_for_IoT
https://api.github.com/repos/PHP-DI/ZF2-Bridge
https://api.github.com/repos/jcubic/jquery.micro
https://api.github.com/repos/martin-magakian/CGRect-Utils
https://api.github.com/repos/g3rd/django-timetable
https://api.github.com/repos/BeSimple/BeSimpleSoapCommon
https://api.github.com/repos/trupin/crawlable
https://api.github.com/repos/morgoth/lin
https://api.github.com/repos/valueof/ministruct
https://api.github.com/repos/tarowatanabe/expgram
https://api.github.com/repos/hkm/FFPLUGS
https://api.github.com/repos/bp74/StageXL_Isometric
https://api.github.com/repos/pcn/pyKairosDB
https://api.github.com/repos/robrocker7/django-angular-gae-skeleton
https://api.github.com/repos/zhiyi7/ddwrt
https://api.github.com/repos/ilyalukyanov/lightningdb-win
https://api.github.com/repos/yyl8781697/AjaxFramework
https://api.github.com/repos/Ravenbrook/jill
https://api.github.com/repos/afterlight/GoalMeter
https://api.github.com/repos/jesusatc/libgba
https://api.github.com/repos/bendera/ffgen
https://api.github.com/repos/fcayci/STM32F4-ChibiOS
https://api.github.com/repos/remko/scons2ninja
https://api.github.com/repos/strangerstudios/pmpro-variable-pricing
https://api.github.com/repos/okfn-brasil/orcamento.inesc.org.br
https://api.github.com/repos/ms-s/rudp
https://api.github.com/repos/tkach/MulticastDelegate
https://api.github.com/repos/markjulmar/BioWF
https://api.github.com/repos/lukasoppermann/mark
https://api.github.com/repos/potch/promise.js
https://api.github.com/repos/asok/.emacs.d
https://api.github.com/repos/Klap-in/dokuwiki-plugin-bookcreator
https://api.github.com/repos/luhn/geo-data
https://api.github.com/repos/dbuenzli/vz
https://api.github.com/repos/aeden/bugsnag-erlang
https://api.github.com/repos/adafruit/Adafruit-Sharp-Memory-Display-PCBs
https://api.github.com/repos/Khan/localeplanet
https://api.github.com/repos/Harurow/Hidemaru-Settings
https://api.github.com/repos/codefortulsa/localtour
https://api.github.com/repos/anqafalak/japkatsuyou
https://api.github.com/repos/dpwe/get_f0_snd
https://api.github.com/repos/telekom/oscad
https://api.github.com/repos/KensCode/TrainMotor
https://api.github.com/repos/Saleslogix/DotNetSDataClient
https://api.github.com/repos/makerbot/thingiverse-php
https://api.github.com/repos/fadion/Code-in-Tune
https://api.github.com/repos/piotr-szachewicz/iir-filter-designer
https://api.github.com/repos/abhinavsingh/sshpool
https://api.github.com/repos/skeggse/node-rijndael
https://api.github.com/repos/magicdrive/git-parallel
https://api.github.com/repos/novaphotos/nova-ios-sdk
https://api.github.com/repos/codefortulsa/localtour
